<configuration>
    <input>
        <net-file value="grid.net.xml"/>
        <route-files value="routes_fixed.rou.xml"/>
    </input>

    <time>
        <begin value="0"/>
        <end value="300"/>
    </time>

    <report>
        <verbose value="true"/>
    </report>
</configuration>